4
step: 1  T=      240.110K  Ek=     0.124147  Ep=    -0.069283  E_gap=    10.880414  Err=       0.0000000000000000  time_stamp= 1672955487.1096
 O         0.69505        -0.00043        -0.00053         0.00039        -0.00106        -0.00132       -12.46099         0.03845         0.05531        -0.31987
 C        -0.70593         0.00035         0.00236         0.00114         0.00089         0.00588        10.57903         0.14638        -0.16002         0.10226
H        -1.31626         0.94373        -0.00985        -0.02441         0.00831        -0.02451         1.02497        -0.52166         0.05344         0.10948
H        -1.30451        -0.94108        -0.00985         0.00463        -0.00206        -0.02452         0.85700         0.33682         0.05127         0.10813
4
step: 2  T=      250.985K  Ek=     0.129769  Ep=    -0.074906  E_gap=    10.881501  Err=       0.0000000000000000  time_stamp= 1672955487.4801
 O         0.69461        -0.00085        -0.00106        -0.00261        -0.00105        -0.00130       -12.43242         0.07534         0.10897        -0.31929
 C        -0.70480         0.00071         0.00470         0.00451         0.00095         0.00580        10.40675         0.27632        -0.32058         0.10185
H        -1.32524         0.94665        -0.01961        -0.02020         0.00598        -0.02420         1.17579        -0.69675         0.10992         0.11005
H        -1.30200        -0.94165        -0.01961         0.00790        -0.00076        -0.02422         0.84988         0.34509         0.10169         0.10739
4
step: 3  T=      319.084K  Ek=     0.164979  Ep=    -0.110116  E_gap=    10.892165  Err=       0.0000000000000000  time_stamp= 1672955487.8310
 O         0.69297        -0.00126        -0.00157        -0.00559        -0.00102        -0.00127       -12.30862         0.11153         0.16137        -0.31806
 C        -0.70233         0.00111         0.00700         0.00781         0.00106         0.00567        10.17602         0.38309        -0.48028         0.10183
H        -1.33241         0.94851        -0.02920        -0.01545         0.00305        -0.02367         1.30115        -0.83469         0.16812         0.11008
H        -1.29819        -0.94169        -0.02922         0.01112         0.00056        -0.02374         0.83144         0.34007         0.15080         0.10616
4
step: 4  T=      443.953K  Ek=     0.229541  Ep=    -0.174678  E_gap=    10.912207  Err=       0.0000000000000000  time_stamp= 1672955488.1811
 O         0.69013        -0.00167        -0.00207        -0.00854        -0.00099        -0.00123       -12.08037         0.14733         0.21245        -0.31618
 C        -0.69855         0.00156         0.00924         0.01104         0.00120         0.00549         9.88112         0.46244        -0.63715         0.10225
H        -1.33760         0.94909        -0.03854        -0.01029        -0.00033        -0.02291         1.39775        -0.93129         0.22654         0.10953
H        -1.29311        -0.94121        -0.03860         0.01425         0.00182        -0.02308         0.80149         0.32152         0.19816         0.10440
4
step: 5  T=      622.871K  Ek=     0.322049  Ep=    -0.267186  E_gap=    10.941304  Err=       0.0000000000000000  time_stamp= 1672955488.5312
 O         0.68614        -0.00206        -0.00255        -0.01141        -0.00095        -0.00117       -11.73226         0.18285         0.26185        -0.31364
 C        -0.69350         0.00207         0.01139         0.01416         0.00135         0.00526         9.50938         0.51170        -0.78873         0.10317
H        -1.34064         0.94825        -0.04753        -0.00481        -0.00400        -0.02194         1.46298        -0.98418         0.28358         0.10838
H        -1.28679        -0.94023        -0.04768         0.01724         0.00299        -0.02224         0.75989         0.28963         0.24330         0.10209
4
step: 6  T=      850.231K  Ek=     0.439603  Ep=    -0.384740  E_gap=    10.979016  Err=       0.0000000000000000  time_stamp= 1672955488.8791
 O         0.68101        -0.00243        -0.00301        -0.01419        -0.00090        -0.00110       -11.24282         0.21802         0.30891        -0.31043
 C        -0.68722         0.00264         0.01345         0.01714         0.00152         0.00499         9.04157         0.52931        -0.93234         0.10465
H        -1.34145         0.94589        -0.05609         0.00085        -0.00779        -0.02076         1.49471        -0.99232         0.33766         0.10659
H        -1.27931        -0.93881        -0.05639         0.02006         0.00402        -0.02123         0.70654         0.24500         0.28577         0.09919
4
step: 7  T=     1116.944K  Ek=     0.577505  Ep=    -0.522641  E_gap=    11.024786  Err=       0.0000000000000000  time_stamp= 1672955489.2427
 O         0.67479        -0.00278        -0.00343        -0.01683        -0.00085        -0.00102       -10.58487         0.25254         0.35281        -0.30656
 C        -0.67978         0.00328         0.01538         0.01996         0.00169         0.00467         8.45242         0.51448        -1.06528         0.10679
H        -1.33996         0.94202        -0.06414         0.00657        -0.01152        -0.01938         1.49108        -0.95563         0.38732         0.10413
H        -1.27075        -0.93702        -0.06467         0.02265         0.00485        -0.02007         0.64137         0.18860         0.32516         0.09564
4
step: 8  T=     1409.937K  Ek=     0.728994  Ep=    -0.674130  E_gap=    11.077932  Err=       0.0000000000000000  time_stamp= 1672955489.6059
 O         0.66755        -0.00311        -0.00383        -0.01928        -0.00078        -0.00093        -9.72638         0.28586         0.39250        -0.30203
 C        -0.67125         0.00399         0.01718         0.02257         0.00185         0.00431         7.71163         0.46711        -1.18480         0.10967
H        -1.33619         0.93668        -0.07159         0.01221        -0.01503        -0.01782         1.45037        -0.87477         0.43118         0.10096
H        -1.26120        -0.93493        -0.07245         0.02496         0.00545        -0.01877         0.56438         0.12180         0.36113         0.09139
4
step: 9  T=     1711.886K  Ek=     0.885113  Ep=    -0.830250  E_gap=    11.137644  Err=       0.0000000000000000  time_stamp= 1672955489.9668
 O         0.65936        -0.00341        -0.00418        -0.02151        -0.00071        -0.00083        -8.63229         0.31711         0.42672        -0.29686
 C        -0.66173         0.00476         0.01883         0.02491         0.00199         0.00392         6.78560         0.38772        -1.28814         0.11341
H        -1.33020         0.93000        -0.07839         0.01762        -0.01815        -0.01610         1.37105        -0.75112         0.46801         0.09706
H        -1.25078        -0.93266        -0.07968         0.02697         0.00577        -0.01733         0.47564         0.04629         0.39341         0.08638
4
step: 10  T=     2001.332K  Ek=     1.034769  Ep=    -0.979905  E_gap=    11.202976  Err=       0.0000000000000000  time_stamp= 1672955490.3326
 O         0.65034        -0.00368        -0.00449        -0.02344        -0.00063        -0.00073        -7.26757         0.34506         0.45405        -0.29108
 C        -0.65133         0.00558         0.02032         0.02692         0.00209         0.00349         5.64029         0.27770        -1.37260         0.11810
H        -1.32210         0.92216        -0.08447         0.02265        -0.02072        -0.01426         1.25189        -0.58684         0.49676         0.09242
H        -1.23963        -0.93031        -0.08631         0.02861         0.00580        -0.01578         0.37540        -0.03593         0.42179         0.08056
