4
step: 1  T=      400.000K  Ek=     0.206816  Ep=    -0.163628  E_gap=    10.912988  Err=       0.0000000000000000  time_stamp= 1672955491.1431
 O         0.69157         0.00083        -0.00045        -0.00733         0.00183        -0.00100       -12.18724        -0.07117         0.04731        -0.31799
 C        -0.70207        -0.00224         0.00201         0.00951        -0.00491         0.00443        10.44654         0.32081        -0.13537         0.10377
H        -1.30019         0.94578        -0.00840         0.01374         0.01201        -0.01850         0.90834        -0.45188         0.04500         0.10590
H        -1.31123        -0.93227        -0.00840        -0.01080         0.01742        -0.01850         0.83236         0.20225         0.04307         0.10832
4
step: 2  T=      400.000K  Ek=     0.206816  Ep=    -0.251416  E_gap=    10.942698  Err=       0.0000000000000000  time_stamp= 1672955491.5212
 O         0.68805         0.00156        -0.00085        -0.00858         0.00151        -0.00082       -11.89560        -0.13243         0.08809        -0.31575
 C        -0.69760        -0.00418         0.00378         0.01075        -0.00399         0.00366        10.15059         0.58671        -0.25355         0.10476
H        -1.29399         0.95024        -0.01577         0.01448         0.00846        -0.01530         0.93972        -0.55151         0.08601         0.10317
H        -1.31491        -0.92515        -0.01577        -0.00642         0.01508        -0.01531         0.80529         0.09723         0.07946         0.10781
4
step: 3  T=      400.000K  Ek=     0.206816  Ep=    -0.348155  E_gap=    10.975817  Err=       0.0000000000000000  time_stamp= 1672955491.8888
 O         0.68404         0.00216        -0.00118        -0.00942         0.00122        -0.00066       -11.53643        -0.18313         0.12157        -0.31327
 C        -0.69264        -0.00574         0.00523         0.01152        -0.00311         0.00295         9.81362         0.78608        -0.35068         0.10598
H        -1.28748         0.95320        -0.02182         0.01494         0.00515        -0.01230         0.94654        -0.61099         0.12053         0.10033
H        -1.31686        -0.91905        -0.02184        -0.00280         0.01262        -0.01235         0.77626         0.00804         0.10858         0.10695
4
step: 4  T=      400.000K  Ek=     0.206816  Ep=    -0.449508  E_gap=    11.011276  Err=       0.0000000000000000  time_stamp= 1672955492.2503
 O         0.67972         0.00264        -0.00143        -0.00996         0.00096        -0.00051       -11.11589        -0.22420         0.14823        -0.31064
 C        -0.68740        -0.00694         0.00639         0.01198        -0.00233         0.00231         9.43668         0.92250        -0.42791         0.10739
H        -1.28078         0.95479        -0.02665         0.01519         0.00226        -0.00966         0.93150        -0.63397         0.14821         0.09746
H        -1.31738        -0.91399        -0.02669         0.00010         0.01025        -0.00974         0.74771        -0.06432         0.13147         0.10579
4
step: 5  T=      400.000K  Ek=     0.206816  Ep=    -0.552031  E_gap=    11.048283  Err=       0.0000000000000000  time_stamp= 1672955492.6193
 O         0.67520         0.00301        -0.00163        -0.01029         0.00074        -0.00039       -10.63922        -0.25687         0.16881        -0.30793
 C        -0.68201        -0.00781         0.00728         0.01223        -0.00165         0.00177         9.02032         1.00312        -0.48738         0.10899
H        -1.27399         0.95521        -0.03040         0.01529        -0.00012        -0.00741         0.89788        -0.62578         0.16936         0.09458
H        -1.31677        -0.90994        -0.03049         0.00238         0.00810        -0.00753         0.72102        -0.12047         0.14921         0.10436
4
step: 6  T=      400.000K  Ek=     0.206816  Ep=    -0.653072  E_gap=    11.086263  Err=       0.0000000000000000  time_stamp= 1672955492.9897
 O         0.67057         0.00329        -0.00178        -0.01049         0.00055        -0.00028       -10.11064        -0.28243         0.18412        -0.30517
 C        -0.67654        -0.00841         0.00796         0.01234        -0.00109         0.00132         8.56493         1.03652        -0.53158         0.11076
H        -1.26719         0.95468        -0.03323         0.01528        -0.00201        -0.00552         0.84894        -0.59216         0.18467         0.09172
H        -1.31527        -0.90680        -0.03339         0.00418         0.00620        -0.00569         0.69677        -0.16193         0.16280         0.10269
4
step: 7  T=      400.000K  Ek=     0.206816  Ep=    -0.750623  E_gap=    11.124799  Err=       0.0000000000000000  time_stamp= 1672955493.3604
 O         0.66589         0.00350        -0.00188        -0.01061         0.00040        -0.00020        -9.53338        -0.30211         0.19493        -0.30239
 C        -0.67105        -0.00877         0.00845         0.01238        -0.00062         0.00094         8.07076         1.03137        -0.56295         0.11268
H        -1.26042         0.95343        -0.03530         0.01519        -0.00345        -0.00395         0.78770        -0.53863         0.19498         0.08888
H        -1.31307        -0.90444        -0.03554         0.00561         0.00455        -0.00416         0.67492        -0.19063         0.17304         0.10083
4
step: 8  T=      400.000K  Ek=     0.206816  Ep=    -0.843175  E_gap=    11.163591  Err=       0.0000000000000000  time_stamp= 1672955493.7267
 O         0.66118         0.00364        -0.00195        -0.01067         0.00027        -0.00012        -8.90988        -0.31696         0.20195        -0.29961
 C        -0.66558        -0.00896         0.00879         0.01238        -0.00025         0.00063         7.53799         0.99579        -0.58365         0.11474
H        -1.25375         0.95164        -0.03673         0.01503        -0.00447        -0.00265         0.71686        -0.47021         0.20112         0.08608
H        -1.31030        -0.90277        -0.03707         0.00678         0.00315        -0.00290         0.65503        -0.20862         0.18058         0.09879
4
step: 9  T=      400.000K  Ek=     0.206816  Ep=    -0.929596  E_gap=    11.202423  Err=       0.0000000000000000  time_stamp= 1672955494.0931
 O         0.65649         0.00374        -0.00199        -0.01071         0.00016        -0.00006        -8.24195        -0.32787         0.20577        -0.29683
 C        -0.66014        -0.00899         0.00901         0.01237         0.00005         0.00037         6.96671         0.93714        -0.59552         0.11692
H        -1.24719         0.94949        -0.03764         0.01481        -0.00514        -0.00158         0.63883        -0.39139         0.20387         0.08332
H        -1.30709        -0.90166        -0.03809         0.00778         0.00196        -0.00184         0.63642        -0.21788         0.18588         0.09659
4
step: 10  T=      400.000K  Ek=     0.206816  Ep=    -1.009033  E_gap=    11.241133  Err=       0.0000000000000000  time_stamp= 1672955494.4571
 O         0.65181         0.00378        -0.00201        -0.01072         0.00007        -0.00001        -7.53097        -0.33550         0.20690        -0.29405
 C        -0.65474        -0.00891         0.00912         0.01234         0.00029         0.00015         6.35695         0.86194        -0.60007         0.11923
H        -1.24077         0.94713        -0.03811         0.01454        -0.00551        -0.00068         0.55576        -0.30615         0.20390         0.08057
H        -1.30349        -0.90105        -0.03868         0.00866         0.00096        -0.00096         0.61826        -0.22029         0.18927         0.09425
