4
step: 1  T=      303.733K  Ek=     0.157042  Ep=    -1.363987  E_gap=    11.578060  Err=       0.0000000000000000  time_stamp= 1669604860.4461
 O        -0.61250        -0.00107         0.00012        -0.00575        -0.00267         0.00031        -0.17544         0.09984        -0.00958        -0.27462
 C         0.61286         0.00161        -0.00050         0.00772         0.00405        -0.00124         0.25608         0.06796         0.02977         0.13933
H         1.22005         0.93676         0.00199         0.02533        -0.00828         0.00496        -0.15882        -0.09566        -0.01032         0.06921
H         1.19932        -0.93895         0.00199        -0.02603         0.00248         0.00496         0.07818        -0.07214        -0.00986         0.06609
4
step: 2  T=      296.176K  Ek=     0.153135  Ep=    -1.360048  E_gap=    11.562541  Err=       0.0000000000000000  time_stamp= 1669604860.8041
 O        -0.61481        -0.00214         0.00025        -0.00573        -0.00264         0.00030         0.38495         0.19851        -0.01953        -0.27658
 C         0.61597         0.00324        -0.00099         0.00770         0.00408        -0.00123        -0.39473         0.13144         0.05905         0.13808
H         1.23006         0.93338         0.00397         0.02459        -0.00863         0.00490        -0.22683        -0.08701        -0.02067         0.07233
H         1.18897        -0.93801         0.00397        -0.02543         0.00188         0.00490         0.23661        -0.24294        -0.01886         0.06617
4
step: 3  T=      278.398K  Ek=     0.143943  Ep=    -1.350787  E_gap=    11.546252  Err=       0.0000000000000000  time_stamp= 1669604861.1790
 O        -0.61708        -0.00318         0.00037        -0.00557        -0.00258         0.00030         0.92058         0.29559        -0.02971        -0.27848
 C         0.61902         0.00488        -0.00148         0.00747         0.00413        -0.00120        -1.01730         0.17888         0.08759         0.13683
H         1.23972         0.92986         0.00591         0.02361        -0.00893         0.00480        -0.28687        -0.07214        -0.03091         0.07539
H         1.17898        -0.93745         0.00591        -0.02424         0.00064         0.00482         0.38359        -0.40233        -0.02697         0.06625
4
step: 4  T=      252.606K  Ek=     0.130607  Ep=    -1.337358  E_gap=    11.529497  Err=       0.0000000000000000  time_stamp= 1669604861.5588
 O        -0.61926        -0.00420         0.00048        -0.00529        -0.00250         0.00029         1.42100         0.38961        -0.03999        -0.28028
 C         0.62195         0.00654        -0.00196         0.00705         0.00419        -0.00117        -1.59385         0.19960         0.11524         0.13559
H         1.24895         0.92624         0.00781         0.02241        -0.00917         0.00466        -0.33840        -0.05156        -0.04090         0.07837
H         1.16957        -0.93750         0.00782        -0.02253        -0.00116         0.00470         0.51125        -0.53766        -0.03434         0.06632
4
step: 5  T=      221.763K  Ek=     0.114660  Ep=    -1.321310  E_gap=    11.512621  Err=       0.0000000000000000  time_stamp= 1669604861.9301
 O        -0.62131        -0.00518         0.00060        -0.00489        -0.00239         0.00028         1.87788         0.47914        -0.05023        -0.28194
 C         0.62466         0.00823        -0.00242         0.00646         0.00425        -0.00113        -2.10947         0.18398         0.14195         0.13435
H         1.25765         0.92253         0.00964         0.02103        -0.00931         0.00449        -0.38128        -0.02607        -0.05052         0.08123
H         1.16095        -0.93837         0.00967        -0.02038        -0.00340         0.00455         0.61287        -0.63705        -0.04120         0.06636
4
step: 6  T=      189.057K  Ek=     0.097750  Ep=    -1.304309  E_gap=    11.495986  Err=       0.0000000000000000  time_stamp= 1669604862.3008
 O        -0.62317        -0.00611         0.00071        -0.00439        -0.00227         0.00027         2.28479         0.56287        -0.06025        -0.28342
 C         0.62711         0.00994        -0.00286         0.00571         0.00430        -0.00108        -2.55268         0.12477         0.16774         0.13312
H         1.26577         0.91878         0.01140         0.01951        -0.00936         0.00428        -0.41569         0.00328        -0.05965         0.08394
H         1.15327        -0.94022         0.01146        -0.01789        -0.00595         0.00438         0.68359        -0.69092        -0.04784         0.06635
4
step: 7  T=      157.377K  Ek=     0.081370  Ep=    -1.287863  E_gap=    11.479965  Err=       0.0000000000000000  time_stamp= 1669604862.6749
 O        -0.62482        -0.00699         0.00081        -0.00379        -0.00212         0.00025         2.63690         0.63971        -0.06989        -0.28468
 C         0.62923         0.01167        -0.00328         0.00483         0.00432        -0.00102        -2.91578         0.01827         0.19266         0.13190
H         1.27326         0.91504         0.01306         0.01786        -0.00928         0.00403        -0.44213         0.03530        -0.06818         0.08648
H         1.14664        -0.94313         0.01318        -0.01521        -0.00860         0.00419         0.72101        -0.69328        -0.05459         0.06630
4
step: 8  T=      128.913K  Ek=     0.066653  Ep=    -1.273109  E_gap=    11.464924  Err=       0.0000000000000000  time_stamp= 1669604863.0528
 O        -0.62620        -0.00781         0.00091        -0.00312        -0.00196         0.00023         2.93062         0.70877        -0.07900        -0.28570
 C         0.63097         0.01340        -0.00368         0.00385         0.00431        -0.00096        -3.19468        -0.13480         0.21674         0.13070
H         1.28006         0.91136         0.01462         0.01613        -0.00908         0.00376        -0.46135         0.06870        -0.07603         0.08881
H         1.14111        -0.94710         0.01482        -0.01244        -0.01115         0.00397         0.72542        -0.64267        -0.06171         0.06618
4
step: 9  T=      104.974K  Ek=     0.054276  Ep=    -1.260723  E_gap=    11.451211  Err=       0.0000000000000000  time_stamp= 1669604863.4229
 O        -0.62731        -0.00856         0.00100        -0.00239        -0.00178         0.00021         3.16318         0.76943        -0.08741        -0.28646
 C         0.63231         0.01511        -0.00405         0.00279         0.00423        -0.00088        -3.38850        -0.32922         0.23991         0.12956
H         1.28616         0.90778         0.01607         0.01434        -0.00876         0.00345        -0.47429         0.10218        -0.08315         0.09092
H         1.13669        -0.95205         0.01635        -0.00971        -0.01342         0.00372         0.69960        -0.54238        -0.06935         0.06597
4
step: 10  T=       86.033K  Ek=     0.044483  Ep=    -1.250940  E_gap=    11.439155  Err=       0.0000000000000000  time_stamp= 1669604863.7961
 O        -0.62811        -0.00923         0.00108        -0.00160        -0.00159         0.00019         3.33246         0.82129        -0.09501        -0.28694
 C         0.63320         0.01679        -0.00438         0.00168         0.00409        -0.00080        -3.49885        -0.55584         0.26201         0.12850
H         1.29154         0.90435         0.01738         0.01251        -0.00830         0.00312        -0.48199         0.13446        -0.08949         0.09278
H         1.13334        -0.95784         0.01779        -0.00713        -0.01523         0.00343         0.64839        -0.39992        -0.07751         0.06566
