4
step: 1  T=      395.299K  Ek=     0.204385  Ep=    -1.363025  E_gap=    11.564679  Err=       0.0000000000000000  time_stamp= 1669605419.6010
 O        -0.61358         0.00007        -0.00006        -0.00867        -0.00006        -0.00001        -0.66835        -1.51501        -1.87703        -0.27658
 C         0.61461        -0.00002         0.00011         0.01235         0.00024         0.00005         2.74086         1.18234        -1.23159         0.13588
H         1.20762         0.94789        -0.00026        -0.00480         0.01971        -0.00019         0.46915        -0.11145         0.15912         0.07035
H         1.20810        -0.94868        -0.00011        -0.00485        -0.02161        -0.00018        -0.31058        -0.03931         0.34392         0.07035
4
step: 2  T=      387.782K  Ek=     0.200499  Ep=    -1.354551  E_gap=    11.534759  Err=       0.0000000000000000  time_stamp= 1669605419.9560
 O        -0.61714        -0.00002        -0.00008        -0.00873        -0.00014         0.00003         0.79127        -1.70032         3.40866        -0.28058
 C         0.61967         0.00016         0.00011         0.01244         0.00042        -0.00012        -1.74562        -0.00894        -0.64769         0.13110
H         1.20600         0.95570        -0.00014        -0.00427         0.01772         0.00049        -0.28085        -0.84901        -0.04939         0.07485
H         1.20587        -0.95734         0.00014        -0.00531        -0.02053         0.00050         0.24225         0.69284        -0.02312         0.07463
4
step: 3  T=      348.685K  Ek=     0.180284  Ep=    -1.338281  E_gap=    11.505791  Err=       0.0000000000000000  time_stamp= 1669605420.3105
 O        -0.62057        -0.00011         0.00002        -0.00842        -0.00018         0.00005         1.54392        -1.61548        -1.52960        -0.28436
 C         0.62456         0.00038        -0.00005         0.01206         0.00040        -0.00021        -0.83921        -0.38675        -0.95681         0.12680
H         1.20411         0.96219        -0.00005        -0.00377         0.01537         0.00086         0.39906        -0.33286         0.21644         0.07898
H         1.20395        -0.96497         0.00026        -0.00629        -0.01725         0.00086        -0.64596         1.07456        -0.11911         0.07858
4
step: 4  T=      298.655K  Ek=     0.154417  Ep=    -1.316004  E_gap=    11.477909  Err=       0.0000000000000000  time_stamp= 1669605420.6815
 O        -0.62387        -0.00022         0.00003        -0.00788        -0.00024         0.00005         2.54942        -1.99441        -0.78739        -0.28796
 C         0.62932         0.00054        -0.00013         0.01126         0.00044        -0.00022        -4.61362        -2.07213        -1.44019         0.12292
H         1.20289         0.96811         0.00052        -0.00259         0.01349         0.00089         0.21154        -0.89057        -0.37481         0.08283
H         1.20093        -0.97102         0.00057        -0.00646        -0.01496         0.00089         0.51462        -0.10173        -0.12550         0.08220
4
step: 5  T=      232.234K  Ek=     0.120074  Ep=    -1.289772  E_gap=    11.451864  Err=       0.0000000000000000  time_stamp= 1669605421.0538
 O        -0.62687        -0.00028         0.00008        -0.00687        -0.00016         0.00001         8.67002         0.17086        -0.84541        -0.29111
 C         0.63356         0.00071        -0.00024         0.00990         0.00045        -0.00005        -1.83426         2.07977         1.33261         0.11950
H         1.20205         0.97296         0.00066        -0.00373         0.01147         0.00021        -0.74796        -0.11293        -0.17155         0.08624
H         1.19877        -0.97695         0.00090        -0.00519        -0.01434         0.00021         0.44180         0.49445        -0.24603         0.08537
4
step: 6  T=      178.020K  Ek=     0.092043  Ep=    -1.262884  E_gap=    11.429691  Err=       0.0000000000000000  time_stamp= 1669605421.4051
 O        -0.62936        -0.00041         0.00005        -0.00575        -0.00008        -0.00004         5.15529        -1.61134        -0.05352        -0.29390
 C         0.63724         0.00096        -0.00018         0.00874         0.00037         0.00016        -2.32319        -0.74708         0.63426         0.11655
H         1.19982         0.97739         0.00061        -0.00662         0.00928        -0.00068        -0.69705        -0.76360        -0.50963         0.08916
H         1.19687        -0.98237         0.00080        -0.00634        -0.01242        -0.00067        -0.53497         0.81171         0.18483         0.08819
4
step: 7  T=      125.894K  Ek=     0.065092  Ep=    -1.237677  E_gap=    11.411471  Err=       0.0000000000000000  time_stamp= 1669605421.7594
 O        -0.63146        -0.00046         0.00002        -0.00471        -0.00008        -0.00004         4.02233        -2.24616        -1.38607        -0.29644
 C         0.64054         0.00112        -0.00008         0.00750         0.00033         0.00020        -5.11003         0.54260        -0.09295         0.11414
H         1.19659         0.98058        -0.00006        -0.00721         0.00618        -0.00082         0.24077        -0.75296         0.36219         0.09166
H         1.19388        -0.98666         0.00066        -0.00734        -0.00875        -0.00081         0.24136         1.22289        -0.02410         0.09064
4
step: 8  T=       80.659K  Ek=     0.041704  Ep=    -1.216598  E_gap=    11.397175  Err=       0.0000000000000000  time_stamp= 1669605422.1111
 O        -0.63313        -0.00057        -0.00003        -0.00358        -0.00009        -0.00001         3.73880         2.11859         0.26823        -0.29845
 C         0.64323         0.00132         0.00002         0.00602         0.00045         0.00006        -5.48357        -1.99595         0.54242         0.11240
H         1.19391         0.98250        -0.00008        -0.00776         0.00257        -0.00025        -0.48577        -1.39418         0.15310         0.09357
H         1.19115        -0.98919         0.00035        -0.00715        -0.00654        -0.00025        -0.37370        -0.31672         0.48646         0.09248
4
step: 9  T=       53.544K  Ek=     0.027684  Ep=    -1.200022  E_gap=    11.387196  Err=       0.0000000000000000  time_stamp= 1669605422.4804
 O        -0.63432        -0.00046        -0.00006        -0.00240        -0.00003         0.00002         4.37793         3.54278         1.81356        -0.30010
 C         0.64535         0.00141         0.00004         0.00463         0.00054        -0.00007        -5.09752         1.46716         2.60501         0.11116
H         1.19050         0.98251        -0.00011        -0.00987        -0.00035         0.00029        -0.33712        -0.39793         0.58197         0.09505
H         1.18807        -0.99201         0.00059        -0.00715        -0.00557         0.00029        -0.01733         0.60386         0.17847         0.09389
4
step: 10  T=       35.746K  Ek=     0.018482  Ep=    -1.188468  E_gap=    11.381318  Err=       0.0000000000000000  time_stamp= 1669605422.8332
 O        -0.63504        -0.00044        -0.00010        -0.00142         0.00001         0.00003         4.27094         2.27158         0.17591        -0.30136
 C         0.64690         0.00159         0.00005         0.00338         0.00049        -0.00014        -3.04944         0.41720         1.43462         0.11037
H         1.18633         0.98193         0.00032        -0.01072        -0.00356         0.00059         0.15848        -1.10117        -0.12789         0.09607
H         1.18522        -0.99391         0.00071        -0.00697        -0.00246         0.00059         0.10319         1.18403         0.63565         0.09492
