4
step: 1  T=      280.007K  Ek=     0.144775  Ep=    -1.350262  E_gap=    11.616029  Err=       0.0005869352103797  time_stamp= 1669609037.3039
 O        -0.60726        -0.00008         0.00016         0.00719        -0.00020         0.00041        -1.56945         0.02357        -0.02681        -0.27267
 C         0.60576        -0.00081        -0.00066        -0.00979        -0.00196        -0.00164         1.86414         0.36514         0.06013         0.14053
H         1.21476         0.94784         0.00264         0.01186         0.01884         0.00656        -0.29009        -0.39677        -0.01712         0.06607
H         1.20609        -0.93691         0.00264        -0.00928         0.00775         0.00656        -0.00460         0.00806        -0.01621         0.06607
4
step: 2  T=      241.130K  Ek=     0.124674  Ep=    -1.330652  E_gap=    11.631565  Err=       0.0006381683563623  time_stamp= 1669609037.6462
 O        -0.60446        -0.00016         0.00032         0.00672        -0.00019         0.00040        -2.29110         0.06138        -0.03341        -0.26702
 C         0.60196        -0.00157        -0.00131        -0.00906        -0.00180        -0.00162         2.66226         0.66074         0.09270         0.14032
H         1.21928         0.95507         0.00525         0.01043         0.01685         0.00647        -0.45623        -0.64236        -0.03147         0.06307
H         1.20237        -0.93380         0.00525        -0.00912         0.00761         0.00648         0.08508        -0.07975        -0.02782         0.06363
4
step: 3  T=      192.533K  Ek=     0.099547  Ep=    -1.305245  E_gap=    11.638118  Err=       0.0004039304623060  time_stamp= 1669609037.9666
 O        -0.60188        -0.00024         0.00048         0.00609        -0.00017         0.00039        -2.93255         0.10166        -0.02708        -0.26187
 C         0.59851        -0.00225        -0.00195        -0.00810        -0.00155        -0.00158         3.33943         0.89848         0.10797         0.14426
H         1.22310         0.96132         0.00781         0.00844         0.01402         0.00632        -0.58504        -0.83501        -0.04448         0.05774
H         1.19879        -0.93082         0.00782        -0.00862         0.00714         0.00635         0.17816        -0.16513        -0.03640         0.05988
4
step: 4  T=      140.559K  Ek=     0.072674  Ep=    -1.277607  E_gap=    11.643409  Err=       0.0004547101430239  time_stamp= 1669609038.2998
 O        -0.59958        -0.00030         0.00064         0.00531        -0.00015         0.00038        -3.55701         0.12743        -0.02818        -0.26240
 C         0.59548        -0.00281        -0.00258        -0.00692        -0.00122        -0.00155         3.98336         1.10891         0.13378         0.15205
H         1.22603         0.96629         0.01030         0.00600         0.01054         0.00612        -0.68900        -0.98636        -0.05962         0.05305
H         1.19548        -0.92809         0.01033        -0.00777         0.00635         0.00620         0.26266        -0.24997        -0.04598         0.05730
4
step: 5  T=       91.236K  Ek=     0.047173  Ep=    -1.251874  E_gap=    11.655586  Err=       0.0005257566810359  time_stamp= 1669609038.6376
 O        -0.59763        -0.00035         0.00079         0.00438        -0.00011         0.00038        -4.16006         0.13868        -0.04603        -0.26438
 C         0.59297        -0.00322        -0.00319        -0.00555        -0.00084        -0.00149         4.59748         1.28929         0.18182         0.15615
H         1.22790         0.96975         0.01271         0.00321         0.00655         0.00586        -0.76881        -1.09825        -0.07765         0.05140
H         1.19257        -0.92574         0.01277        -0.00664         0.00524         0.00600         0.33138        -0.32972        -0.05813         0.05682
4
step: 6  T=       50.891K  Ek=     0.026313  Ep=    -1.230833  E_gap=    11.673415  Err=       0.0003834779432919  time_stamp= 1669609038.9801
 O        -0.59608        -0.00039         0.00094         0.00332        -0.00008         0.00036        -4.65662         0.14930        -0.06931        -0.26171
 C         0.59104        -0.00348        -0.00378        -0.00399        -0.00041        -0.00143         5.08354         1.40428         0.23528         0.15206
H         1.22859         0.97153         0.01499         0.00018         0.00222         0.00553        -0.81170        -1.15941        -0.09550         0.05245
H         1.19017        -0.92390         0.01513        -0.00526         0.00385         0.00575         0.38478        -0.39417        -0.07046         0.05720
4
step: 7  T=       25.214K  Ek=     0.013037  Ep=    -1.217585  E_gap=    11.686496  Err=       0.0003934677580694  time_stamp= 1669609039.3272
 O        -0.59498        -0.00041         0.00108         0.00216        -0.00004         0.00034        -4.96681         0.16526        -0.07975        -0.25604
 C         0.58977        -0.00355        -0.00433        -0.00231         0.00005        -0.00135         5.34842         1.43007         0.26884         0.14594
H         1.22805         0.97153         0.01713        -0.00292        -0.00222         0.00513        -0.80712        -1.15923        -0.10939         0.05339
H         1.18836        -0.92266         0.01738        -0.00371         0.00226         0.00546         0.42551        -0.43610        -0.07970         0.05672
4
step: 8  T=       17.427K  Ek=     0.009010  Ep=    -1.213532  E_gap=    11.687813  Err=       0.0004300112679747  time_stamp= 1669609039.6702
 O        -0.59435        -0.00042         0.00121         0.00094         0.00000         0.00032        -5.09808         0.17365        -0.07511        -0.25478
 C         0.58919        -0.00344        -0.00485        -0.00059         0.00050        -0.00126         5.40601         1.38460         0.28018         0.14754
H         1.22626         0.96976         0.01910        -0.00592        -0.00654         0.00470        -0.75949        -1.10093        -0.11901         0.05203
H         1.18720        -0.92209         0.01950        -0.00203         0.00055         0.00515         0.45156        -0.45732        -0.08606         0.05521
4
step: 9  T=       27.686K  Ek=     0.014315  Ep=    -1.218900  E_gap=    11.682762  Err=       0.0002747987305019  time_stamp= 1669609040.0144
 O        -0.59422        -0.00041         0.00134        -0.00029         0.00004         0.00031        -5.10742         0.16102        -0.07091        -0.25951
 C         0.58930        -0.00315        -0.00534         0.00114         0.00093        -0.00117         5.33038         1.29719         0.29087         0.15650
H         1.22331         0.96630         0.02089        -0.00868        -0.01056         0.00423        -0.68015        -0.99561        -0.12704         0.04924
H         1.18673        -0.92222         0.02149        -0.00029        -0.00121         0.00480         0.45720        -0.46261        -0.09291         0.05377
4
step: 10  T=       53.793K  Ek=     0.027813  Ep=    -1.232641  E_gap=    11.681946  Err=       0.0005669767116729  time_stamp= 1669609040.3657
 O        -0.59459        -0.00039         0.00146        -0.00151         0.00008         0.00029        -5.01502         0.13242        -0.08115        -0.26347
 C         0.59010        -0.00269        -0.00579         0.00282         0.00133        -0.00107         5.14849         1.16634         0.31899         0.16200
H         1.21932         0.96131         0.02248        -0.01107        -0.01409         0.00372        -0.57241        -0.84807        -0.13530         0.04810
H         1.18697        -0.92306         0.02334         0.00142        -0.00296         0.00443         0.43895        -0.45069        -0.10254         0.05337
