4
step: 1  T=      442.655K  Ek=     0.228870  Ep=    -1.356180  E_gap=    11.599609  Err=       0.0000000000000000  time_stamp= 1669605884.9904
 O        -0.60929        -0.00019        -0.00019         0.00218        -0.00048        -0.00048        -0.86564        -0.00213         0.03210        -0.27267
 C         0.61058         0.00187         0.00078         0.00210         0.00457         0.00194         0.81584        -0.63003        -0.07088         0.14053
H         1.19371         0.93833        -0.00312        -0.03978        -0.00386        -0.00777         0.22974         0.16637         0.01853         0.06607
H         1.20200        -0.95753        -0.00312        -0.01982        -0.04292        -0.00777        -0.17994         0.46578         0.02025         0.06607
4
step: 2  T=      409.892K  Ek=     0.211930  Ep=    -1.339703  E_gap=    11.604038  Err=       0.0000000000000000  time_stamp= 1669605885.2868
 O        -0.60846        -0.00038        -0.00038         0.00196        -0.00048        -0.00047        -0.97932        -0.03289         0.04644        -0.27606
 C         0.61147         0.00365         0.00156         0.00234         0.00428         0.00191         0.70325        -1.17957        -0.11550         0.14037
H         1.17797         0.93691        -0.00622        -0.03832        -0.00272        -0.00768         0.53152         0.42813         0.03100         0.06845
H         1.19394        -0.97434        -0.00622        -0.02065        -0.04053        -0.00766        -0.25545         0.78433         0.03805         0.06724
4
step: 3  T=      361.743K  Ek=     0.187035  Ep=    -1.314812  E_gap=    11.607977  Err=       0.0000000000000000  time_stamp= 1669605885.6019
 O        -0.60773        -0.00058        -0.00057         0.00171        -0.00050        -0.00046        -1.08361        -0.07987         0.04510        -0.28037
 C         0.61245         0.00529         0.00231         0.00255         0.00382         0.00187         0.58169        -1.64254        -0.13637         0.13792
H         1.16305         0.93615        -0.00927        -0.03575        -0.00062        -0.00755         0.80870         0.67134         0.03763         0.07324
H         1.18548        -0.98995        -0.00925        -0.02173        -0.03702        -0.00748        -0.30678         1.05107         0.05363         0.06921
4
step: 4  T=      305.789K  Ek=     0.158105  Ep=    -1.285028  E_gap=    11.612240  Err=       0.0000000000000000  time_stamp= 1669605885.9159
 O        -0.60709        -0.00078        -0.00075         0.00144        -0.00052        -0.00045        -1.16161        -0.11391         0.04371        -0.28227
 C         0.61351         0.00671         0.00305         0.00271         0.00323         0.00183         0.43570        -2.05049        -0.15576         0.13276
H         1.14937         0.93642        -0.01226        -0.03219         0.00236        -0.00740         1.05487         0.88586         0.04217         0.07855
H         1.17656        -1.00395        -0.01220        -0.02295        -0.03256        -0.00725        -0.32896         1.27853         0.06987         0.07096
4
step: 5  T=      249.897K  Ek=     0.129207  Ep=    -1.255630  E_gap=    11.613949  Err=       0.0000000000000000  time_stamp= 1669605886.2288
 O        -0.60657        -0.00100        -0.00093         0.00115        -0.00055        -0.00044        -1.20248        -0.12008         0.05670        -0.28236
 C         0.61462         0.00787         0.00377         0.00282         0.00251         0.00177         0.26043        -2.40419        -0.19423         0.12820
H         1.13730         0.93804        -0.01518        -0.02776         0.00608        -0.00722         1.25874         1.05309         0.04857         0.08193
H         1.16713        -1.01600        -0.01505        -0.02418        -0.02729        -0.00694        -0.31669         1.47118         0.08896         0.07223
4
step: 6  T=      201.666K  Ek=     0.104269  Ep=    -1.230482  E_gap=    11.610279  Err=       0.0000000000000000  time_stamp= 1669605886.5422
 O        -0.60617        -0.00122        -0.00110         0.00086        -0.00058        -0.00042        -1.21098        -0.10756         0.08471        -0.28361
 C         0.61576         0.00872         0.00447         0.00288         0.00170         0.00170         0.07746        -2.65256        -0.25250         0.12752
H         1.12716         0.94128        -0.01804        -0.02266         0.01028        -0.00702         1.40162         1.14416         0.05790         0.08236
H         1.15721        -1.02579        -0.01776        -0.02530        -0.02138        -0.00656        -0.26810         1.61596         0.10989         0.07373
4
step: 7  T=      167.186K  Ek=     0.086442  Ep=    -1.212636  E_gap=    11.602839  Err=       0.0000000000000000  time_stamp= 1669605886.8439
 O        -0.60588        -0.00146        -0.00126         0.00057        -0.00060        -0.00040        -1.20074        -0.09320         0.11415        -0.28686
 C         0.61692         0.00923         0.00513         0.00288         0.00083         0.00161        -0.07889        -2.73449        -0.31125         0.12953
H         1.11917         0.94627        -0.02080        -0.01717         0.01465        -0.00678         1.46721         1.13376         0.06813         0.08124
H         1.14688        -1.03310        -0.02030        -0.02617        -0.01504        -0.00611        -0.18758         1.69392         0.12897         0.07609
4
step: 8  T=      149.205K  Ek=     0.077145  Ep=    -1.203530  E_gap=    11.596517  Err=       0.0000000000000000  time_stamp= 1669605887.1605
 O        -0.60571        -0.00170        -0.00142         0.00029        -0.00062        -0.00037        -1.17825        -0.07860         0.13081        -0.28978
 C         0.61806         0.00939         0.00576         0.00283        -0.00003         0.00150        -0.19386        -2.63889        -0.35134         0.12972
H         1.11343         0.95300        -0.02346        -0.01158         0.01876        -0.00650         1.45504         1.01764         0.07740         0.08120
H         1.13627        -1.03782        -0.02264        -0.02669        -0.00855        -0.00558        -0.08292         1.69985         0.14314         0.07886
4
step: 9  T=      146.321K  Ek=     0.075654  Ep=    -1.202221  E_gap=    11.594053  Err=       0.0000000000000000  time_stamp= 1669605887.4715
 O        -0.60566        -0.00196        -0.00156         0.00001        -0.00064        -0.00033        -1.13762        -0.05136         0.13213        -0.29104
 C         0.61918         0.00921         0.00633         0.00275        -0.00084         0.00139        -0.28299        -2.40568        -0.37105         0.12603
H         1.10991         0.96128        -0.02600        -0.00615         0.02227        -0.00618         1.37989         0.81269         0.08663         0.08397
H         1.12553        -1.03994        -0.02477        -0.02677        -0.00214        -0.00502         0.04072         1.64435         0.15229         0.08104
4
step: 10  T=      153.876K  Ek=     0.079560  Ep=    -1.206408  E_gap=    11.593542  Err=       0.0000000000000000  time_stamp= 1669605887.7805
 O        -0.60571        -0.00221        -0.00169        -0.00026        -0.00064        -0.00030        -1.07116        -0.00428         0.12836        -0.29207
 C         0.62027         0.00872         0.00687         0.00265        -0.00156         0.00126        -0.37262        -2.07733        -0.38585         0.12100
H         1.10851         0.97081        -0.02840        -0.00109         0.02486        -0.00583         1.25961         0.54236         0.09885         0.08883
H         1.11485        -1.03954        -0.02666        -0.02634         0.00395        -0.00442         0.18418         1.53926         0.15865         0.08224
