4
step: 1  T=      459.480K  Ek=     0.237570  Ep=    -0.106537  E_gap=    10.893656  Err=       0.0000000000000000  time_stamp= 1672868977.2182
 O         0.69309        -0.00038         0.00007        -0.00451        -0.00095         0.00016       -12.32583         0.02941        -0.00683        -0.32045
 C        -0.70411         0.00210        -0.00029         0.00565         0.00517        -0.00072        10.30177        -0.54392         0.02013         0.09977
H        -1.30412         0.94483         0.00121         0.00562         0.01123         0.00300         0.86609        -0.43985        -0.00633         0.11077
H        -1.30717        -0.96381         0.00121        -0.00145        -0.05769         0.00300         1.15798         0.95437        -0.00696         0.10990
4
step: 2  T=      518.748K  Ek=     0.268214  Ep=    -0.137181  E_gap=    10.907891  Err=       0.0000000000000000  time_stamp= 1672868977.5548
 O         0.69069        -0.00076         0.00013        -0.00746        -0.00094         0.00016       -12.15668         0.05679        -0.01332        -0.32041
 C        -0.70118         0.00414        -0.00058         0.00889         0.00492        -0.00071         9.89866        -1.01276         0.04069         0.09718
H        -1.30121         0.94898         0.00240         0.00893         0.00935         0.00297         0.86438        -0.53958        -0.01257         0.11253
H        -1.30686        -0.98615         0.00240         0.00344        -0.05296         0.00296         1.39364         1.49555        -0.01480         0.11070
4
step: 3  T=      619.352K  Ek=     0.320230  Ep=    -0.189197  E_gap=    10.931667  Err=       0.0000000000000000  time_stamp= 1672868977.8616
 O         0.68712        -0.00114         0.00019        -0.01035        -0.00093         0.00016       -11.87723         0.08261        -0.01962        -0.31964
 C        -0.69699         0.00604        -0.00086         0.01200         0.00453        -0.00069         9.46950        -1.40329         0.06140         0.09536
H        -1.29697         0.95231         0.00358         0.01220         0.00714         0.00290         0.84696        -0.61217        -0.01866         0.11359
H        -1.30442        -1.00619         0.00357         0.00909        -0.04638         0.00288         1.56077         1.93285        -0.02311         0.11069
4
step: 4  T=      768.539K  Ek=     0.397365  Ep=    -0.266333  E_gap=    10.964965  Err=       0.0000000000000000  time_stamp= 1672868978.1692
 O         0.68241        -0.00151         0.00025        -0.01316        -0.00090         0.00015       -11.46869         0.10651        -0.02573        -0.31809
 C        -0.69158         0.00776        -0.00113         0.01496         0.00403        -0.00067         8.99160        -1.71847         0.08174         0.09440
H        -1.29145         0.95470         0.00473         0.01538         0.00471         0.00282         0.81294        -0.65611        -0.02453         0.11391
H        -1.29959        -1.02326         0.00471         0.01526        -0.03833         0.00278         1.66416         2.26808        -0.03149         0.10978
4
step: 5  T=      969.366K  Ek=     0.501201  Ep=    -0.370168  E_gap=    11.007739  Err=       0.0000000000000000  time_stamp= 1672868978.4764
 O         0.67659        -0.00186         0.00031        -0.01586        -0.00088         0.00014       -10.90634         0.12808        -0.03156        -0.31574
 C        -0.68502         0.00926        -0.00139         0.01777         0.00343        -0.00064         8.43536        -1.96374         0.10126         0.09437
H        -1.28467         0.95608         0.00584         0.01839         0.00217         0.00272         0.76159        -0.67093        -0.03009         0.11344
H        -1.29221        -1.03686         0.00580         0.02172        -0.02920         0.00264         1.70939         2.50659        -0.03961         0.10792
4
step: 6  T=     1219.105K  Ek=     0.630326  Ep=    -0.499294  E_gap=    11.059888  Err=       0.0000000000000000  time_stamp= 1672868978.7614
 O         0.66972        -0.00221         0.00037        -0.01841        -0.00084         0.00013       -10.16006         0.14701        -0.03703        -0.31258
 C        -0.67737         0.01051        -0.00164         0.02037         0.00278        -0.00061         7.76663        -2.14421         0.11951         0.09537
H        -1.27673         0.95644         0.00690         0.02118        -0.00037         0.00259         0.69238        -0.65691        -0.03525         0.11213
H        -1.28221        -1.04662         0.00683         0.02826        -0.01932         0.00248         1.70105         2.65411        -0.04723         0.10508
4
step: 7  T=     1508.308K  Ek=     0.779856  Ep=    -0.648823  E_gap=    11.121212  Err=       0.0000000000000000  time_stamp= 1672868978.9343
 O         0.66186        -0.00254         0.00042        -0.02075        -0.00081         0.00013        -9.19552         0.16324        -0.04200        -0.30863
 C        -0.66872         0.01148        -0.00188         0.02275         0.00207        -0.00056         6.94877        -2.26302         0.13607         0.09749
H        -1.26773         0.95578         0.00791         0.02368        -0.00281         0.00245         0.60502        -0.61503        -0.03994         0.10992
H        -1.26961        -1.05231         0.00778         0.03467        -0.00904         0.00228         1.64173         2.71481        -0.05413         0.10122
4
step: 8  T=     1820.408K  Ek=     0.941224  Ep=    -0.810191  E_gap=    11.191352  Err=       0.0000000000000000  time_stamp= 1672868979.1143
 O         0.65312        -0.00285         0.00047        -0.02283        -0.00077         0.00011        -7.97632         0.17711        -0.04632        -0.30394
 C        -0.65918         0.01216        -0.00209         0.02483         0.00133        -0.00052         5.94520        -2.32053         0.15054         0.10083
H        -1.25779         0.95419         0.00886         0.02580        -0.00503         0.00229         0.49955        -0.54682        -0.04409         0.10676
H        -1.25448        -1.05385         0.00865         0.04076         0.00131         0.00207         1.53157         2.69024        -0.06013         0.09634
4
step: 9  T=     2131.917K  Ek=     1.102287  Ep=    -0.971254  E_gap=    11.269712  Err=       0.0000000000000000  time_stamp= 1672868979.2902
 O         0.64360        -0.00315         0.00051        -0.02459        -0.00072         0.00010        -6.46760         0.18957        -0.04983        -0.29856
 C        -0.64886         0.01254        -0.00229         0.02656         0.00059        -0.00047         4.72295        -2.31405         0.16251         0.10550
H        -1.24709         0.95176         0.00974         0.02749        -0.00695         0.00212         0.37644        -0.45445        -0.04766         0.10258
H        -1.23700        -1.05127         0.00943         0.04634         0.01140         0.00183         1.36821         2.57893        -0.06503         0.09048
4
step: 10  T=     2413.388K  Ek=     1.247818  Ep=    -1.116786  E_gap=    11.355376  Err=       0.0000000000000000  time_stamp= 1672868979.4636
 O         0.63345        -0.00343         0.00055        -0.02594        -0.00067         0.00009        -4.64114         0.20236        -0.05237        -0.29261
 C        -0.63794         0.01263        -0.00247         0.02785        -0.00014        -0.00042         3.25736        -2.23812         0.17156         0.11158
H        -1.23580         0.94863         0.01055         0.02868        -0.00848         0.00193         0.23674        -0.34073        -0.05061         0.09734
H        -1.21742        -1.04474         0.01011         0.05118         0.02090         0.00157         1.14705         2.37649        -0.06858         0.08368
