4
step: 1  T=      498.757K  Ek=     0.257877  Ep=    -1.359442  E_gap=    11.592021  Err=       0.0000000000000000  time_stamp= 1672868999.0206
 O        -0.60999        -0.00157         0.00022         0.00023        -0.00411         0.00079        -2.33374        -0.02700         0.63307        -0.27378
 C         0.61028         0.00300        -0.00116         0.00187         0.00778        -0.00317         4.34571         0.78818        -0.34419         0.13894
H         1.21871         0.94100         0.00527         0.02061         0.00193         0.01265        -0.73776        -0.45431        -0.24069         0.07003
H         1.19167        -0.95173         0.00514        -0.04654        -0.02936         0.01265        -0.73120        -0.16676         0.25764         0.06481
4
step: 2  T=      496.280K  Ek=     0.256597  Ep=    -1.352851  E_gap=    11.587936  Err=       0.0000000000000000  time_stamp= 1672868999.3949
 O        -0.61002        -0.00322         0.00055         0.00017        -0.00407         0.00078         2.73765         2.17746         0.36757        -0.27531
 C         0.61129         0.00616        -0.00246         0.00228         0.00773        -0.00315        -1.09368         1.28334         0.42087         0.13703
H         1.22638         0.94142         0.01013         0.01815         0.00076         0.01257        -0.56504         0.09616        -0.22169         0.07431
H         1.17248        -0.96360         0.01039        -0.04801        -0.02824         0.01256         0.10502         1.00913         0.05491         0.06397
4
step: 3  T=      442.753K  Ek=     0.228921  Ep=    -1.341806  E_gap=    11.583436  Err=       0.0000000000000000  time_stamp= 1672868999.7695
 O        -0.60985        -0.00486         0.00087         0.00058        -0.00385         0.00074         2.54027         1.90396         0.58695        -0.27670
 C         0.61210         0.00921        -0.00371         0.00177         0.00735        -0.00300        -0.73467        -2.28091         1.90813         0.13530
H         1.23317         0.94168         0.01498         0.01603        -0.00079         0.01195        -0.40551        -0.81498         0.20507         0.07822
H         1.15332        -0.97424         0.01544        -0.04628        -0.02568         0.01196         0.90337         0.43099        -0.43279         0.06318
4
step: 4  T=      397.352K  Ek=     0.205447  Ep=    -1.327693  E_gap=    11.578145  Err=       0.0000000000000000  time_stamp= 1672869000.1424
 O        -0.60956        -0.00629         0.00114         0.00045        -0.00363         0.00073        -1.37442         0.43920        -0.10874        -0.27785
 C         0.61270         0.01203        -0.00484         0.00177         0.00716        -0.00296         2.50404        -1.49109         0.60262         0.13382
H         1.23922         0.94076         0.01985         0.01443        -0.00234         0.01183        -0.10734        -0.34170         0.38360         0.08167
H         1.13544        -0.98416         0.01984        -0.04271        -0.02531         0.01184         0.92934        -0.55477         0.19847         0.06236
4
step: 5  T=      372.559K  Ek=     0.192628  Ep=    -1.310358  E_gap=    11.568227  Err=       0.0000000000000000  time_stamp= 1672869000.5465
 O        -0.60949        -0.00768         0.00140         0.00025        -0.00350         0.00073         0.17350         0.22107         1.28356        -0.27907
 C         0.61352         0.01484        -0.00602         0.00188         0.00715        -0.00296        -1.43058        -0.86042         0.35359         0.13205
H         1.24486         0.93961         0.02485         0.01342        -0.00367         0.01178        -0.27205        -0.61880        -0.37772         0.08516
H         1.11902        -0.99466         0.02470        -0.03976        -0.02599         0.01185         0.52271        -0.04612        -0.07090         0.06186
4
step: 6  T=      337.417K  Ek=     0.174458  Ep=    -1.290099  E_gap=    11.556751  Err=       0.0000000000000000  time_stamp= 1672869000.9216
 O        -0.60936        -0.00903         0.00172        -0.00001        -0.00336         0.00070        -2.78622        -1.93023         1.88857        -0.28013
 C         0.61421         0.01768        -0.00721         0.00214         0.00688        -0.00280         2.67109        -3.50316         1.36374         0.13038
H         1.25004         0.93770         0.02924         0.01267        -0.00501         0.01115        -0.12332        -0.32460         0.05476         0.08843
H         1.10355        -1.00506         0.02935        -0.03807        -0.02356         0.01123         0.31907         1.08908        -0.29865         0.06132
4
step: 7  T=      309.882K  Ek=     0.160221  Ep=    -1.268829  E_gap=    11.542765  Err=       0.0000000000000000  time_stamp= 1672869001.2931
 O        -0.60950        -0.01035         0.00201        -0.00016        -0.00327         0.00066        -1.53137         1.54964        -0.19383        -0.28134
 C         0.61523         0.02033        -0.00832         0.00233         0.00665        -0.00265        -3.86105         0.28229        -0.45817         0.12872
H         1.25501         0.93557         0.03367         0.01204        -0.00692         0.01049        -0.34859        -0.88900         0.44098         0.09154
H         1.08856        -1.01353         0.03354        -0.03724        -0.02034         0.01060        -0.09033         0.40515        -1.18110         0.06108
4
step: 8  T=      275.014K  Ek=     0.142193  Ep=    -1.245584  E_gap=    11.528753  Err=       0.0000000000000000  time_stamp= 1672869001.6990
 O        -0.60949        -0.01162         0.00230        -0.00022        -0.00313         0.00060        -2.10274         3.39314        -1.59968        -0.28235
 C         0.61607         0.02297        -0.00937         0.00225         0.00647        -0.00241         1.03562        -0.43052        -1.23343         0.12736
H         1.25971         0.93208         0.03824         0.01132        -0.00928         0.00949        -0.12255        -0.35793        -0.56262         0.09436
H         1.07374        -1.02139         0.03691        -0.03470        -0.01812         0.00973         1.15733         0.77791        -0.57250         0.06062
4
step: 9  T=      211.114K  Ek=     0.109154  Ep=    -1.222646  E_gap=    11.513101  Err=       0.0000000000000000  time_stamp= 1672869002.0706
 O        -0.60968        -0.01279         0.00257        -0.00054        -0.00282         0.00053         0.86732         1.97009         1.11454        -0.28330
 C         0.61704         0.02544        -0.01032         0.00223         0.00577        -0.00212        -0.19711        -1.88918         0.89292         0.12609
H         1.26415         0.92801         0.04170         0.01160        -0.01116         0.00838         0.35376        -0.43658        -0.29797         0.09692
H         1.06075        -1.02813         0.04046        -0.02963        -0.01280         0.00859         1.60923         2.18764        -0.28258         0.06029
4
step: 10  T=      155.423K  Ek=     0.080360  Ep=    -1.203197  E_gap=    11.499210  Err=       0.0000000000000000  time_stamp= 1672869002.4446
 O        -0.60992        -0.01388         0.00280        -0.00051        -0.00247         0.00044         0.17428         4.27016        -1.20888        -0.28394
 C         0.61785         0.02758        -0.01114         0.00182         0.00494        -0.00179        -1.73233        -1.71393         1.90819         0.12538
H         1.26899         0.92317         0.04479         0.01132        -0.01278         0.00708        -0.40608        -0.30837        -0.24588         0.09885
H         1.05006        -1.03162         0.04365        -0.02502        -0.00678         0.00725         0.80082         1.06611        -0.44037         0.05971
